Circuit: * Z:\home\boi\Dev\Courses\2023-08 PhilsLab KiCad MixedSignal\MixSigCouse-KiCad-Files\LTSpice_simulations\3rd_order_bw_filter\3rd_order_bw_filter.asc

Direct Newton iteration for .op point succeeded.

Date: Sun Aug 20 15:05:07 2023
Total elapsed time: 0.097 seconds.

tnom = 27
temp = 27
method = trap
totiter = 4
traniter = 0
tranpoints = 0
accept = 0
rejected = 0
matrix size = 26
fillins = 24
solver = Normal
Matrix Compiler1:     137 opcodes
Matrix Compiler2: 2.73 KB object code size
